Version 4
SHEET 1 1992 728
WIRE 16 -64 -80 -64
WIRE 544 -64 176 -64
WIRE 544 -32 464 -32
WIRE 544 0 288 0
WIRE 880 16 736 16
WIRE 1136 16 1040 16
WIRE -704 32 -704 -32
WIRE 544 32 352 32
WIRE 352 64 352 32
WIRE 544 64 464 64
WIRE 544 96 464 96
WIRE -704 144 -704 112
WIRE 288 160 288 0
WIRE 352 160 352 128
WIRE -704 288 -704 272
WIRE -704 400 -704 368
WIRE -704 512 -704 480
WIRE 288 544 288 496
WIRE 864 544 864 496
WIRE 1040 544 1040 496
WIRE 288 688 288 624
WIRE 864 688 864 624
WIRE 1040 688 1040 624
FLAG -704 144 0
FLAG 288 496 Tpulsos
FLAG 288 688 0
FLAG 864 688 0
FLAG 1040 688 0
FLAG 864 496 VCC
FLAG 1040 496 -VCC
FLAG -704 -32 Vin
FLAG -80 -64 Vin
FLAG 1136 16 Vout
FLAG 464 96 VCC
FLAG 464 64 -VCC
FLAG 352 160 0
FLAG 464 -32 Tpulsos
FLAG 288 160 0
FLAG -704 512 0
SYMBOL FAA 96 -64 R0
SYMATTR InstName X1
SYMBOL voltage -704 16 R0
WINDOW 123 24 124 Left 2
WINDOW 39 0 0 Left 0
WINDOW 3 24 44 Left 2
SYMATTR Value2 AC 1
SYMATTR Value SINE(0 1 1.5k 0 0 0)
SYMATTR InstName V1
SYMBOL voltage 288 528 R0
WINDOW 123 0 0 Left 0
WINDOW 39 0 0 Left 0
SYMATTR InstName V2
SYMATTR Value PULSE(0 5 0 0.01n 0.01n 20u 40u 200)
SYMBOL voltage 864 528 R0
WINDOW 123 0 0 Left 0
WINDOW 39 0 0 Left 0
SYMATTR InstName V3
SYMATTR Value 16
SYMBOL voltage 1040 528 R0
WINDOW 123 0 0 Left 0
WINDOW 39 0 0 Left 0
SYMATTR InstName V4
SYMATTR Value -16
SYMBOL FAA 960 16 R0
SYMATTR InstName X2
SYMBOL LF398 608 -16 R0
WINDOW 0 11 114 Left 0
SYMATTR InstName U1
SYMBOL cap 336 64 R0
SYMATTR InstName C1
SYMATTR Value 4n
SYMBOL voltage -704 384 R0
WINDOW 123 0 0 Left 0
WINDOW 39 0 0 Left 0
SYMATTR InstName V5
SYMATTR Value PULSE(0 1 0 0.1666m 0.1666m 0 0.666m)
SYMBOL voltage -704 384 R180
WINDOW 3 -539 51 Left 2
WINDOW 123 0 0 Left 0
WINDOW 39 0 0 Left 0
SYMATTR Value PULSE(0 1 0.3333m 0.1666m 0.1666m 0 0.666m)
SYMATTR InstName V6
TEXT -280 -264 Left 2 !;.ac dec 500 1 10k
TEXT -280 -240 Left 2 !.include LF398.sub
TEXT -280 -296 Left 2 !.tran 0 10m 0 0.01m
