Version 4
SHEET 1 904 728
WIRE 400 -96 400 -144
WIRE 16 -64 -80 -64
WIRE 368 -64 176 -64
WIRE 576 -64 432 -64
WIRE 832 -64 736 -64
WIRE 368 -32 320 -32
WIRE 320 32 320 -32
WIRE 400 32 400 0
WIRE -192 240 -192 176
WIRE -192 352 -192 320
WIRE -192 544 -192 496
WIRE 304 544 304 496
WIRE 480 544 480 496
WIRE -192 688 -192 624
WIRE 304 688 304 624
WIRE 480 688 480 624
FLAG -192 352 0
FLAG 320 32 Tpulsos
FLAG -192 496 Tpulsos
FLAG -192 688 0
FLAG 304 688 0
FLAG 480 688 0
FLAG 304 496 VCC
FLAG 400 -144 VCC
FLAG 400 32 -VCC
FLAG 480 496 -VCC
FLAG -192 176 Vin
FLAG -80 -64 Vin
FLAG 832 -64 Vout
SYMBOL FAA 96 -64 R0
SYMATTR InstName X1
SYMBOL voltage -192 224 R0
WINDOW 123 24 124 Left 2
WINDOW 39 0 0 Left 0
WINDOW 3 24 44 Left 2
SYMATTR Value2 AC 1
SYMATTR InstName V1
SYMATTR Value SINE(0 1 1.5k 0 0 0)
SYMBOL cd4066 400 -48 R0
SYMATTR InstName U1
SYMBOL voltage -192 528 R0
WINDOW 123 0 0 Left 0
WINDOW 39 0 0 Left 0
SYMATTR InstName V2
SYMATTR Value PULSE(0 5 0 0.01n 0.01n 20u 40u 200)
SYMBOL voltage 304 528 R0
WINDOW 123 0 0 Left 0
WINDOW 39 0 0 Left 0
SYMATTR InstName V3
SYMATTR Value 5
SYMBOL voltage 480 528 R0
WINDOW 123 0 0 Left 0
WINDOW 39 0 0 Left 0
SYMATTR InstName V4
SYMATTR Value -5
SYMBOL FAA 656 -64 R0
SYMATTR InstName X2
TEXT -536 344 Left 2 !;.ac dec 500 1 10k
TEXT -536 368 Left 2 !.include cd4066.sub
TEXT -538 312 Left 2 !.tran 0 7m 0 0.01m
