Version 4
SHEET 1 880 708
WIRE 304 112 304 64
WIRE 0 144 -112 144
WIRE 272 144 160 144
WIRE 464 144 336 144
WIRE -112 176 -112 144
WIRE 272 176 224 176
WIRE 224 240 224 176
WIRE 304 240 304 208
WIRE -112 288 -112 256
WIRE -192 544 -192 496
WIRE 304 544 304 496
WIRE 480 544 480 496
WIRE -192 688 -192 624
WIRE 304 688 304 624
WIRE 480 688 480 624
FLAG -112 288 0
FLAG 224 240 Tpulsos
FLAG -192 496 Tpulsos
FLAG -192 688 0
FLAG 304 688 0
FLAG 480 688 0
FLAG 304 496 VCC
FLAG 304 64 VCC
FLAG 304 240 -VCC
FLAG 480 496 -VCC
SYMBOL FAA 80 144 R0
SYMATTR InstName X1
SYMBOL voltage -112 160 R0
WINDOW 123 24 124 Left 2
WINDOW 39 0 0 Left 0
SYMATTR Value2 AC 1
SYMATTR InstName V1
SYMATTR Value ""
SYMBOL cd4066 304 160 R0
SYMATTR InstName U1
SYMBOL voltage -192 528 R0
SYMATTR InstName V2
SYMATTR Value PULSE(0 5 0 1n 1n .05m 1m 200)
SYMBOL voltage 304 528 R0
WINDOW 123 0 0 Left 0
WINDOW 39 0 0 Left 0
SYMATTR InstName V3
SYMATTR Value 5
SYMBOL voltage 480 528 R0
WINDOW 123 0 0 Left 0
WINDOW 39 0 0 Left 0
SYMATTR InstName V4
SYMATTR Value -5
TEXT -144 312 Left 2 !.ac dec 500 1 10k
TEXT -144 -24 Left 2 !.include cd4066.sub
