Version 4
SHEET 1 1928 964
WIRE 368 -96 368 -144
WIRE 16 -64 -80 -64
WIRE 336 -64 176 -64
WIRE 464 -64 400 -64
WIRE 576 -64 464 -64
WIRE 592 -64 576 -64
WIRE 832 -64 736 -64
WIRE 336 -32 304 -32
WIRE 464 -32 464 -64
WIRE 368 32 368 0
WIRE -1024 48 -1024 -16
WIRE 464 64 464 48
WIRE -1024 160 -1024 128
WIRE -256 192 -256 144
WIRE -1024 288 -1024 272
WIRE -256 336 -256 272
WIRE -1024 400 -1024 368
WIRE -1024 512 -1024 480
WIRE 208 512 208 464
WIRE 736 512 736 464
WIRE 912 512 912 464
WIRE 208 656 208 592
WIRE 736 656 736 592
WIRE 912 656 912 592
FLAG -1024 160 0
FLAG 304 -32 Tpulsos
FLAG 208 464 Tpulsos
FLAG 208 656 0
FLAG 736 656 0
FLAG 912 656 0
FLAG 736 464 VCC
FLAG 368 -144 VCC
FLAG 368 32 -VCC
FLAG 912 464 -VCC
FLAG -80 -64 Vin
FLAG 832 -64 Vout
FLAG -1024 512 0
FLAG 464 64 0
FLAG -256 336 0
FLAG -1024 -16 Vin
SYMBOL FAA 96 -64 R0
SYMATTR InstName X1
SYMBOL voltage -1024 32 R0
WINDOW 123 24 124 Left 2
WINDOW 39 0 0 Left 0
WINDOW 3 24 44 Left 2
SYMATTR Value2 AC 1
SYMATTR Value SINE(0 1 1.5k 0 0 90)
SYMATTR InstName V1
SYMBOL cd4066 368 -48 R0
SYMATTR InstName U1
SYMBOL voltage 208 496 R0
WINDOW 123 0 0 Left 0
WINDOW 39 0 0 Left 0
SYMATTR InstName V2
SYMATTR Value PULSE(0 5 0 0.01n 0.01n 20u 40u 200)
SYMBOL voltage 736 496 R0
WINDOW 123 0 0 Left 0
WINDOW 39 0 0 Left 0
SYMATTR InstName V3
SYMATTR Value 5
SYMBOL voltage 912 496 R0
WINDOW 123 0 0 Left 0
WINDOW 39 0 0 Left 0
SYMATTR InstName V4
SYMATTR Value -5
SYMBOL FAA 656 -64 R0
SYMATTR InstName X2
SYMBOL voltage -1024 384 R0
WINDOW 123 0 0 Left 0
WINDOW 39 0 0 Left 0
SYMATTR InstName V5
SYMATTR Value PULSE(0 1 0 0.1666m 0.1666m 0 0.666m)
SYMBOL voltage -1024 384 R180
WINDOW 3 -539 51 Left 2
WINDOW 123 0 0 Left 0
WINDOW 39 0 0 Left 0
SYMATTR Value PULSE(0 1 0.3333m 0.1666m 0.1666m 0 0.666m)
SYMATTR InstName V6
SYMBOL res 448 -48 R0
SYMATTR InstName R1
SYMATTR Value 1k
SYMBOL voltage -256 176 R0
WINDOW 123 0 0 Left 0
WINDOW 39 0 0 Left 0
SYMATTR InstName V7
SYMATTR Value PWL file=sin32.pwl
TEXT -792 -200 Left 2 !;.ac dec 500 1 10k
TEXT -792 -176 Left 2 !.include cd4066.sub
TEXT -792 -232 Left 2 !.tran 0 7m 0 0.01m uic
TEXT 104 176 Left 2 !;.model SW SW(Ron=1 Roff=1Meg Vt=4.5 Vh=-3.6)
