Version 4
SHEET 1 880 680
WIRE 0 144 -112 144
WIRE -112 176 -112 144
WIRE -112 288 -112 256
FLAG -112 288 0
SYMBOL FAA 80 144 R0
SYMATTR InstName X1
SYMBOL voltage -112 160 R0
WINDOW 123 24 124 Left 2
WINDOW 39 0 0 Left 0
SYMATTR InstName V1
SYMATTR Value ""
SYMATTR Value2 AC 1
SYMBOL cd4066 336 176 R0
SYMATTR InstName U1
TEXT -146 312 Left 2 !.ac dec 500 1 10k
TEXT -144 -24 Left 2 !.include cd4066.sub
