Version 4
SHEET 1 1992 728
WIRE 16 -64 -80 -64
WIRE 544 -64 176 -64
WIRE 544 -32 464 -32
WIRE 544 0 288 0
WIRE 880 16 736 16
WIRE 1136 16 1040 16
WIRE 544 32 352 32
WIRE 352 64 352 32
WIRE 544 64 464 64
WIRE 544 96 464 96
WIRE 288 160 288 0
WIRE 352 160 352 128
WIRE -192 240 -192 176
WIRE -192 352 -192 320
WIRE -192 544 -192 496
WIRE 304 544 304 496
WIRE 480 544 480 496
WIRE -192 688 -192 624
WIRE 304 688 304 624
WIRE 480 688 480 624
FLAG -192 352 0
FLAG -192 496 Tpulsos
FLAG -192 688 0
FLAG 304 688 0
FLAG 480 688 0
FLAG 304 496 VCC
FLAG 480 496 -VCC
FLAG -192 176 Vin
FLAG -80 -64 Vin
FLAG 1136 16 Vout
FLAG 464 96 VCC
FLAG 464 64 -VCC
FLAG 352 160 0
FLAG 464 -32 Tpulsos
FLAG 288 160 0
SYMBOL FAA 96 -64 R0
SYMATTR InstName X1
SYMBOL voltage -192 224 R0
WINDOW 123 24 124 Left 2
WINDOW 39 0 0 Left 0
WINDOW 3 24 44 Left 2
SYMATTR Value2 AC 1
SYMATTR Value SINE(0 1 1.5k 0 0 0)
SYMATTR InstName V1
SYMBOL voltage -192 528 R0
WINDOW 123 0 0 Left 0
WINDOW 39 0 0 Left 0
SYMATTR InstName V2
SYMATTR Value PULSE(0 5 0 0.01n 0.01n 20u 40u 200)
SYMBOL voltage 304 528 R0
WINDOW 123 0 0 Left 0
WINDOW 39 0 0 Left 0
SYMATTR InstName V3
SYMATTR Value 16
SYMBOL voltage 480 528 R0
WINDOW 123 0 0 Left 0
WINDOW 39 0 0 Left 0
SYMATTR InstName V4
SYMATTR Value -16
SYMBOL FAA 960 16 R0
SYMATTR InstName X2
SYMBOL LF398 608 -16 R0
WINDOW 0 11 114 Left 0
SYMATTR InstName U1
SYMBOL cap 336 64 R0
SYMATTR InstName C1
SYMATTR Value 10n
TEXT -536 344 Left 2 !;.ac dec 500 1 10k
TEXT -536 368 Left 2 !.include LF398.sub
TEXT -536 312 Left 2 !.tran 0 10m 0 0.01m
