Version 4
SHEET 1 880 680
WIRE 272 0 240 0
WIRE 272 128 272 0
WIRE 32 160 -64 160
WIRE 144 176 96 176
WIRE 256 176 144 176
WIRE 448 176 352 176
WIRE 544 176 448 176
WIRE 32 192 0 192
WIRE 448 192 448 176
WIRE 640 192 608 192
WIRE 784 192 640 192
WIRE 544 208 512 208
WIRE 0 240 0 192
WIRE 144 240 144 176
WIRE 144 240 0 240
WIRE 512 256 512 208
WIRE 640 256 640 192
WIRE 640 256 512 256
WIRE -624 512 -624 464
WIRE -512 512 -512 464
WIRE -368 512 -368 464
WIRE -240 512 -240 464
FLAG 448 256 0
FLAG -624 512 0
FLAG -512 512 0
FLAG -368 512 0
FLAG -240 512 0
FLAG -624 384 Vcc
FLAG -512 384 Vee
FLAG -368 384 Vs
FLAG -240 384 Clock
FLAG -64 160 Vs
FLAG 240 0 Clock
FLAG 784 192 Vout
SYMBOL cap 432 192 R0
SYMATTR InstName C1
SYMATTR Value 1µf
SYMBOL nmos 352 128 R90
SYMATTR InstName M1
SYMATTR Value BSC016N04LS
SYMBOL voltage -624 368 R0
WINDOW 123 0 0 Left 0
WINDOW 39 0 0 Left 0
SYMATTR InstName V+
SYMATTR Value 15
SYMBOL voltage -512 368 R0
WINDOW 123 0 0 Left 0
WINDOW 39 0 0 Left 0
SYMATTR InstName V-
SYMATTR Value -15
SYMBOL voltage -368 368 R0
WINDOW 123 0 0 Left 0
WINDOW 39 0 0 Left 0
SYMATTR InstName V3
SYMATTR Value SINE(0 5 40k)
SYMBOL voltage -240 368 R0
WINDOW 123 0 0 Left 0
WINDOW 39 0 0 Left 0
SYMATTR InstName V4
SYMATTR Value PULSE(0 5 0 0 0 0 50u)
SYMBOL Opamps\\opamp 64 240 M180
SYMATTR InstName U1
SYMBOL Opamps\\opamp 576 256 M180
SYMATTR InstName U2
TEXT -658 536 Left 2 !.tran 500u
TEXT 208 440 Left 2 !.lib opamp.sub
