Version 4
SHEET 1 880 680
WIRE 240 112 96 112
SYMBOL AM_GENERATOR 48 128 R0
WINDOW 39 0 0 Left 0
SYMATTR InstName X1
SYMATTR SpiceLine C=1 fp=5000 M=1 fm=240 mc=1 A=1
TEXT 46 140 Left 2 !.tran 10m
