Version 4
SHEET 1 880 680
WIRE -96 176 -192 176
WIRE 96 176 96 96
WIRE 96 176 -16 176
WIRE 240 176 96 176
WIRE 240 208 16 208
WIRE -448 224 -448 208
WIRE -352 224 -352 208
WIRE 240 240 208 240
WIRE 512 256 432 256
WIRE 544 256 512 256
WIRE 656 256 624 256
WIRE 96 272 64 272
WIRE 240 272 160 272
WIRE 240 304 208 304
WIRE 512 304 512 256
WIRE 528 304 512 304
WIRE 656 320 656 256
WIRE -448 336 -448 304
WIRE -352 336 -352 304
WIRE -352 336 -448 336
WIRE -144 336 -192 336
WIRE 16 336 16 208
WIRE 16 336 -64 336
WIRE 240 336 208 336
WIRE -448 352 -448 336
WIRE -176 432 -192 432
WIRE -80 432 -96 432
WIRE 16 432 0 432
FLAG 528 304 Out
IOPIN 528 304 Out
FLAG 64 272 0
FLAG 208 304 V-
FLAG 208 336 V+
FLAG -448 208 V+
FLAG -352 208 V-
FLAG -448 352 0
FLAG 656 320 0
FLAG 96 96 Vsignal
FLAG 16 336 Vsampling
FLAG 208 240 LRef
FLAG -656 256 LRef
FLAG -656 336 0
FLAG -192 176 0
FLAG -192 336 0
FLAG -192 432 0
SYMBOL cap 160 256 R90
WINDOW 0 16 56 VBottom 0
WINDOW 3 -12 -3 VTop 0
SYMATTR InstName C1
SYMATTR Value 120p
SYMBOL res 528 272 R270
WINDOW 0 16 2 VTop 0
WINDOW 3 44 101 VBottom 0
SYMATTR InstName R1
SYMATTR Value 10K
SYMBOL voltage -48 336 R90
WINDOW 0 15 58 VBottom 0
WINDOW 3 32 56 Invisible 0
WINDOW 123 0 0 Left 0
SYMATTR InstName Vl
SYMATTR Value SINE(0 5 30k 0 0 0 0)
SYMATTR SpiceLine Rser=100 Cpar=100p
SYMBOL Misc\\battery -448 208 R0
WINDOW 0 24 29 Bottom 0
WINDOW 3 22 84 Top 0
WINDOW 123 0 0 Left 0
SYMATTR InstName V+
SYMATTR Value 16
SYMATTR SpiceLine Rser=0.1 Cpar=100p
SYMBOL Misc\\battery -352 208 R0
WINDOW 0 23 30 Bottom 0
WINDOW 3 24 82 Top 0
WINDOW 123 0 0 Left 0
SYMATTR InstName V-
SYMATTR Value -16
SYMATTR SpiceLine Rser=0.1 Cpar=100p
SYMBOL voltage 0 176 R90
WINDOW 0 28 -3 VBottom 0
WINDOW 3 32 56 Invisible 0
WINDOW 123 0 0 Left 0
SYMATTR InstName Vin
SYMATTR Value SINE(0 5 5k 0)
SYMATTR SpiceLine Rser=100 Cpar=100p
SYMBOL LF398 304 224 R0
WINDOW 0 11 114 Left 0
SYMATTR InstName U1
SYMBOL voltage 16 432 R90
WINDOW 0 15 58 VBottom 0
WINDOW 3 32 56 Invisible 0
WINDOW 123 0 0 Left 0
SYMATTR InstName Vl1
SYMATTR Value PULSE(0 4 0 0 0 16.66u 33.33u)
SYMATTR SpiceLine Rser=100 Cpar=100p
SYMBOL voltage -80 432 R90
WINDOW 0 15 58 VBottom 0
WINDOW 3 32 56 Invisible 0
WINDOW 123 0 0 Left 0
SYMATTR InstName Vl2
SYMATTR Value 0
SYMATTR SpiceLine Rser=100 Cpar=100p
SYMBOL voltage -656 240 R0
WINDOW 123 0 0 Left 0
WINDOW 39 0 0 Left 0
SYMATTR InstName V1
SYMATTR Value 0
TEXT -24 144 Left 0 !.tran 0 600u 0 startup
TEXT 224 144 Left 0 !.include LF398.sub
